* NGSPICE file created from r2r_dac_control.ext - technology: sky130A

.subckt sky130_fd_sc_hd__decap_4 VGND VPWR VPB VNB
X0 VPWR VGND VPWR VPB sky130_fd_pr__pfet_01v8_hvt ad=0.2262 pd=2.26 as=0.4524 ps=4.52 w=0.87 l=1.05
X1 VGND VPWR VGND VNB sky130_fd_pr__nfet_01v8 ad=0.143 pd=1.62 as=0.286 ps=3.24 w=0.55 l=1.05
C0 VPWR VGND 0.545943f
C1 VPB VGND 0.116247f
C2 VPWR VPB 0.078686f
C3 VPWR VNB 0.61942f
C4 VGND VNB 0.553666f
C5 VPB VNB 0.427572f
.ends

.subckt sky130_ef_sc_hd__decap_12 VGND VPWR VPB VNB
X0 VPWR VGND VPWR VPB sky130_fd_pr__pfet_01v8_hvt ad=0.2262 pd=2.26 as=0.4524 ps=4.52 w=0.87 l=4.73
X1 VGND VPWR VGND VNB sky130_fd_pr__nfet_01v8 ad=0.143 pd=1.62 as=0.286 ps=3.24 w=0.55 l=4.73
C0 VPB VGND 0.349732f
C1 VPB VPWR 0.136888f
C2 VPWR VGND 1.56539f
C3 VPWR VNB 1.67352f
C4 VGND VNB 1.46552f
C5 VPB VNB 1.13634f
.ends

.subckt sky130_fd_sc_hd__decap_8 VPWR VGND VPB VNB
X0 VPWR VGND VPWR VPB sky130_fd_pr__pfet_01v8_hvt ad=0.2262 pd=2.26 as=0.4524 ps=4.52 w=0.87 l=2.89
X1 VGND VPWR VGND VNB sky130_fd_pr__nfet_01v8 ad=0.143 pd=1.62 as=0.286 ps=3.24 w=0.55 l=2.89
C0 VPB VGND 0.219503f
C1 VPB VPWR 0.104823f
C2 VPWR VGND 1.27274f
C3 VPWR VNB 1.14152f
C4 VGND VNB 0.991595f
C5 VPB VNB 0.781956f
.ends

.subckt sky130_fd_sc_hd__decap_3 VPWR VGND VPB VNB
X0 VPWR VGND VPWR VPB sky130_fd_pr__pfet_01v8_hvt ad=0.2262 pd=2.26 as=0.4524 ps=4.52 w=0.87 l=0.59
X1 VGND VPWR VGND VNB sky130_fd_pr__nfet_01v8 ad=0.143 pd=1.62 as=0.286 ps=3.24 w=0.55 l=0.59
C0 VPB VGND 0.079664f
C1 VPB VPWR 0.062496f
C2 VPWR VGND 0.352999f
C3 VPWR VNB 0.469966f
C4 VGND VNB 0.427318f
C5 VPB VNB 0.338976f
.ends

.subckt sky130_fd_sc_hd__dfxtp_4 VGND VPWR VNB VPB Q D CLK a_1020_47# a_975_413# a_891_413#
+ a_193_47# a_381_47# a_1062_300# a_572_47# a_568_413# a_475_413# a_634_183# a_27_47#
X0 Q a_1062_300# VPWR VPB sky130_fd_pr__pfet_01v8_hvt ad=0.135 pd=1.27 as=0.1425 ps=1.285 w=1 l=0.15
X1 a_1020_47# a_27_47# a_891_413# VNB sky130_fd_pr__nfet_01v8 ad=0.066 pd=0.745 as=0.0657 ps=0.725 w=0.36 l=0.15
X2 a_572_47# a_193_47# a_475_413# VNB sky130_fd_pr__nfet_01v8 ad=0.0687 pd=0.76 as=0.0594 ps=0.69 w=0.36 l=0.15
X3 VPWR a_1062_300# a_975_413# VPB sky130_fd_pr__pfet_01v8_hvt ad=0.1218 pd=1.42 as=0.09135 ps=0.855 w=0.42 l=0.15
X4 a_634_183# a_475_413# VGND VNB sky130_fd_pr__nfet_01v8 ad=0.0989 pd=0.995 as=0.1493 ps=1.22 w=0.64 l=0.15
X5 VPWR CLK a_27_47# VPB sky130_fd_pr__pfet_01v8_hvt ad=0.0864 pd=0.91 as=0.1664 ps=1.8 w=0.64 l=0.15
X6 a_381_47# D VPWR VPB sky130_fd_pr__pfet_01v8_hvt ad=0.0672 pd=0.74 as=0.1092 ps=1.36 w=0.42 l=0.15
X7 a_475_413# a_27_47# a_381_47# VNB sky130_fd_pr__nfet_01v8 ad=0.0594 pd=0.69 as=0.066 ps=0.745 w=0.36 l=0.15
X8 VGND a_1062_300# a_1020_47# VNB sky130_fd_pr__nfet_01v8 ad=0.1197 pd=1.41 as=0.066 ps=0.745 w=0.42 l=0.15
X9 VPWR a_634_183# a_568_413# VPB sky130_fd_pr__pfet_01v8_hvt ad=0.178875 pd=1.26 as=0.0693 ps=0.75 w=0.42 l=0.15
X10 Q a_1062_300# VGND VNB sky130_fd_pr__nfet_01v8 ad=0.08775 pd=0.92 as=0.092625 ps=0.935 w=0.65 l=0.15
X11 a_568_413# a_27_47# a_475_413# VPB sky130_fd_pr__pfet_01v8_hvt ad=0.0693 pd=0.75 as=0.06615 ps=0.735 w=0.42 l=0.15
X12 a_634_183# a_475_413# VPWR VPB sky130_fd_pr__pfet_01v8_hvt ad=0.1095 pd=1.075 as=0.178875 ps=1.26 w=0.75 l=0.15
X13 a_975_413# a_193_47# a_891_413# VPB sky130_fd_pr__pfet_01v8_hvt ad=0.09135 pd=0.855 as=0.0567 ps=0.69 w=0.42 l=0.15
X14 a_193_47# a_27_47# VGND VNB sky130_fd_pr__nfet_01v8 ad=0.1092 pd=1.36 as=0.0567 ps=0.69 w=0.42 l=0.15
X15 a_891_413# a_27_47# a_634_183# VPB sky130_fd_pr__pfet_01v8_hvt ad=0.0567 pd=0.69 as=0.1095 ps=1.075 w=0.42 l=0.15
X16 Q a_1062_300# VGND VNB sky130_fd_pr__nfet_01v8 ad=0.08775 pd=0.92 as=0.105625 ps=0.975 w=0.65 l=0.15
X17 VGND a_891_413# a_1062_300# VNB sky130_fd_pr__nfet_01v8 ad=0.105625 pd=0.975 as=0.169 ps=1.82 w=0.65 l=0.15
X18 VPWR a_1062_300# Q VPB sky130_fd_pr__pfet_01v8_hvt ad=0.1425 pd=1.285 as=0.135 ps=1.27 w=1 l=0.15
X19 VGND a_1062_300# Q VNB sky130_fd_pr__nfet_01v8 ad=0.18525 pd=1.87 as=0.08775 ps=0.92 w=0.65 l=0.15
X20 Q a_1062_300# VPWR VPB sky130_fd_pr__pfet_01v8_hvt ad=0.135 pd=1.27 as=0.1625 ps=1.325 w=1 l=0.15
X21 a_193_47# a_27_47# VPWR VPB sky130_fd_pr__pfet_01v8_hvt ad=0.1664 pd=1.8 as=0.0864 ps=0.91 w=0.64 l=0.15
X22 VGND a_1062_300# Q VNB sky130_fd_pr__nfet_01v8 ad=0.092625 pd=0.935 as=0.08775 ps=0.92 w=0.65 l=0.15
X23 a_381_47# D VGND VNB sky130_fd_pr__nfet_01v8 ad=0.066 pd=0.745 as=0.1092 ps=1.36 w=0.42 l=0.15
X24 VPWR a_891_413# a_1062_300# VPB sky130_fd_pr__pfet_01v8_hvt ad=0.1625 pd=1.325 as=0.28 ps=2.56 w=1 l=0.15
X25 a_891_413# a_193_47# a_634_183# VNB sky130_fd_pr__nfet_01v8 ad=0.0657 pd=0.725 as=0.0989 ps=0.995 w=0.36 l=0.15
X26 a_475_413# a_193_47# a_381_47# VPB sky130_fd_pr__pfet_01v8_hvt ad=0.06615 pd=0.735 as=0.0672 ps=0.74 w=0.42 l=0.15
X27 VGND a_634_183# a_572_47# VNB sky130_fd_pr__nfet_01v8 ad=0.1493 pd=1.22 as=0.0687 ps=0.76 w=0.42 l=0.15
X28 VGND CLK a_27_47# VNB sky130_fd_pr__nfet_01v8 ad=0.0567 pd=0.69 as=0.1092 ps=1.36 w=0.42 l=0.15
X29 VPWR a_1062_300# Q VPB sky130_fd_pr__pfet_01v8_hvt ad=0.28 pd=2.56 as=0.135 ps=1.27 w=1 l=0.15
C0 a_1020_47# VPWR 4.79e-19
C1 a_1020_47# VGND 0.004151f
C2 a_1062_300# a_1020_47# 8.75e-20
C3 a_572_47# a_193_47# 0.001131f
C4 a_975_413# VPWR 0.00475f
C5 a_193_47# a_27_47# 0.723863f
C6 VPB a_193_47# 0.141384f
C7 a_572_47# a_634_183# 6.29e-20
C8 a_1020_47# a_891_413# 0.00605f
C9 VGND a_975_413# 5.62e-19
C10 a_634_183# a_27_47# 0.166122f
C11 VPB a_634_183# 0.073615f
C12 a_568_413# VPWR 0.002673f
C13 CLK a_27_47# 0.21376f
C14 VPB CLK 0.070057f
C15 a_568_413# a_475_413# 0.007015f
C16 a_381_47# a_568_413# 0.001089f
C17 a_975_413# a_891_413# 0.008802f
C18 VPWR a_27_47# 0.383097f
C19 VGND a_572_47# 0.003976f
C20 VPB VPWR 0.198564f
C21 a_572_47# a_475_413# 0.006375f
C22 VGND a_27_47# 0.12468f
C23 a_475_413# a_27_47# 0.178436f
C24 a_193_47# a_634_183# 0.130991f
C25 VGND VPB 0.014659f
C26 a_381_47# a_572_47# 1.46e-19
C27 VPB a_475_413# 0.075941f
C28 D a_27_47# 0.096989f
C29 Q a_27_47# 3.44e-19
C30 VPB D 0.09609f
C31 a_381_47# a_27_47# 0.03397f
C32 Q VPB 0.013356f
C33 a_381_47# VPB 0.013583f
C34 a_1062_300# a_27_47# 0.048687f
C35 a_193_47# CLK 0.001315f
C36 a_1062_300# VPB 0.24732f
C37 a_891_413# a_27_47# 0.037767f
C38 a_891_413# VPB 0.068757f
C39 a_193_47# VPWR 0.106627f
C40 VGND a_193_47# 0.305428f
C41 VPWR a_634_183# 0.102093f
C42 a_193_47# a_475_413# 0.157543f
C43 a_193_47# D 0.103962f
C44 Q a_193_47# 4.61e-19
C45 VGND a_634_183# 0.123913f
C46 a_381_47# a_193_47# 0.16187f
C47 a_475_413# a_634_183# 0.248641f
C48 a_1062_300# a_193_47# 0.030243f
C49 VPWR CLK 0.019411f
C50 a_381_47# a_634_183# 3.45e-19
C51 VGND CLK 0.019463f
C52 a_1062_300# a_634_183# 1.25e-19
C53 a_891_413# a_193_47# 0.139283f
C54 a_891_413# a_634_183# 0.035483f
C55 VGND VPWR 0.100633f
C56 VPWR a_475_413# 0.168224f
C57 VPWR D 0.027256f
C58 Q VPWR 0.335782f
C59 a_381_47# VPWR 0.053383f
C60 VGND a_475_413# 0.09216f
C61 VGND D 0.026396f
C62 VGND Q 0.242058f
C63 a_568_413# a_27_47# 0.002418f
C64 a_1062_300# VPWR 0.226048f
C65 a_381_47# VGND 0.044834f
C66 a_381_47# a_475_413# 0.035644f
C67 a_1020_47# a_634_183# 3.37e-20
C68 a_1062_300# VGND 0.194826f
C69 a_381_47# D 0.076792f
C70 a_1062_300# Q 0.387919f
C71 a_891_413# VPWR 0.113945f
C72 VGND a_891_413# 0.116731f
C73 a_572_47# a_27_47# 7.78e-20
C74 a_975_413# a_193_47# 2.81e-19
C75 a_891_413# Q 0.001398f
C76 VPB a_27_47# 0.275432f
C77 a_975_413# a_634_183# 9.88e-19
C78 a_1062_300# a_891_413# 0.285494f
C79 Q VNB 0.060797f
C80 VGND VNB 0.988933f
C81 VPWR VNB 0.823111f
C82 D VNB 0.129726f
C83 CLK VNB 0.195983f
C84 VPB VNB 1.75651f
C85 a_381_47# VNB 0.016397f
C86 a_891_413# VNB 0.160892f
C87 a_1062_300# VNB 0.529662f
C88 a_475_413# VNB 0.137184f
C89 a_634_183# VNB 0.150209f
C90 a_193_47# VNB 0.271178f
C91 a_27_47# VNB 0.468295f
.ends

.subckt sky130_fd_sc_hd__clkbuf_16 VNB VPB VGND VPWR A X a_110_47#
X0 VPWR A a_110_47# VPB sky130_fd_pr__pfet_01v8_hvt ad=0.14 pd=1.28 as=0.14 ps=1.28 w=1 l=0.15
X1 VPWR a_110_47# X VPB sky130_fd_pr__pfet_01v8_hvt ad=0.14 pd=1.28 as=0.14 ps=1.28 w=1 l=0.15
X2 X a_110_47# VPWR VPB sky130_fd_pr__pfet_01v8_hvt ad=0.14 pd=1.28 as=0.14 ps=1.28 w=1 l=0.15
X3 X a_110_47# VPWR VPB sky130_fd_pr__pfet_01v8_hvt ad=0.14 pd=1.28 as=0.14 ps=1.28 w=1 l=0.15
X4 VPWR a_110_47# X VPB sky130_fd_pr__pfet_01v8_hvt ad=0.14 pd=1.28 as=0.14 ps=1.28 w=1 l=0.15
X5 VPWR a_110_47# X VPB sky130_fd_pr__pfet_01v8_hvt ad=0.265 pd=2.53 as=0.14 ps=1.28 w=1 l=0.15
X6 a_110_47# A VPWR VPB sky130_fd_pr__pfet_01v8_hvt ad=0.14 pd=1.28 as=0.265 ps=2.53 w=1 l=0.15
X7 a_110_47# A VGND VNB sky130_fd_pr__nfet_01v8 ad=0.0588 pd=0.7 as=0.0588 ps=0.7 w=0.42 l=0.15
X8 VGND a_110_47# X VNB sky130_fd_pr__nfet_01v8 ad=0.0588 pd=0.7 as=0.0588 ps=0.7 w=0.42 l=0.15
X9 X a_110_47# VGND VNB sky130_fd_pr__nfet_01v8 ad=0.0588 pd=0.7 as=0.0588 ps=0.7 w=0.42 l=0.15
X10 VGND a_110_47# X VNB sky130_fd_pr__nfet_01v8 ad=0.0588 pd=0.7 as=0.0588 ps=0.7 w=0.42 l=0.15
X11 a_110_47# A VPWR VPB sky130_fd_pr__pfet_01v8_hvt ad=0.14 pd=1.28 as=0.14 ps=1.28 w=1 l=0.15
X12 VGND A a_110_47# VNB sky130_fd_pr__nfet_01v8 ad=0.0588 pd=0.7 as=0.0588 ps=0.7 w=0.42 l=0.15
X13 VGND a_110_47# X VNB sky130_fd_pr__nfet_01v8 ad=0.05775 pd=0.695 as=0.0588 ps=0.7 w=0.42 l=0.15
X14 VPWR a_110_47# X VPB sky130_fd_pr__pfet_01v8_hvt ad=0.14 pd=1.28 as=0.14 ps=1.28 w=1 l=0.15
X15 X a_110_47# VPWR VPB sky130_fd_pr__pfet_01v8_hvt ad=0.14 pd=1.28 as=0.14 ps=1.28 w=1 l=0.15
X16 VGND A a_110_47# VNB sky130_fd_pr__nfet_01v8 ad=0.0588 pd=0.7 as=0.0588 ps=0.7 w=0.42 l=0.15
X17 VGND a_110_47# X VNB sky130_fd_pr__nfet_01v8 ad=0.1113 pd=1.37 as=0.0588 ps=0.7 w=0.42 l=0.15
X18 VPWR a_110_47# X VPB sky130_fd_pr__pfet_01v8_hvt ad=0.1375 pd=1.275 as=0.14 ps=1.28 w=1 l=0.15
X19 VGND a_110_47# X VNB sky130_fd_pr__nfet_01v8 ad=0.0588 pd=0.7 as=0.0588 ps=0.7 w=0.42 l=0.15
X20 X a_110_47# VPWR VPB sky130_fd_pr__pfet_01v8_hvt ad=0.14 pd=1.28 as=0.1375 ps=1.275 w=1 l=0.15
X21 a_110_47# A VGND VNB sky130_fd_pr__nfet_01v8 ad=0.0588 pd=0.7 as=0.1113 ps=1.37 w=0.42 l=0.15
X22 VPWR A a_110_47# VPB sky130_fd_pr__pfet_01v8_hvt ad=0.14 pd=1.28 as=0.14 ps=1.28 w=1 l=0.15
X23 VPWR a_110_47# X VPB sky130_fd_pr__pfet_01v8_hvt ad=0.14 pd=1.28 as=0.14 ps=1.28 w=1 l=0.15
X24 VPWR a_110_47# X VPB sky130_fd_pr__pfet_01v8_hvt ad=0.14 pd=1.28 as=0.14 ps=1.28 w=1 l=0.15
X25 VGND a_110_47# X VNB sky130_fd_pr__nfet_01v8 ad=0.0588 pd=0.7 as=0.0588 ps=0.7 w=0.42 l=0.15
X26 X a_110_47# VPWR VPB sky130_fd_pr__pfet_01v8_hvt ad=0.14 pd=1.28 as=0.14 ps=1.28 w=1 l=0.15
X27 VGND a_110_47# X VNB sky130_fd_pr__nfet_01v8 ad=0.0588 pd=0.7 as=0.0588 ps=0.7 w=0.42 l=0.15
X28 VGND a_110_47# X VNB sky130_fd_pr__nfet_01v8 ad=0.0588 pd=0.7 as=0.0588 ps=0.7 w=0.42 l=0.15
X29 X a_110_47# VGND VNB sky130_fd_pr__nfet_01v8 ad=0.0588 pd=0.7 as=0.0588 ps=0.7 w=0.42 l=0.15
X30 X a_110_47# VPWR VPB sky130_fd_pr__pfet_01v8_hvt ad=0.14 pd=1.28 as=0.14 ps=1.28 w=1 l=0.15
X31 X a_110_47# VPWR VPB sky130_fd_pr__pfet_01v8_hvt ad=0.14 pd=1.28 as=0.14 ps=1.28 w=1 l=0.15
X32 X a_110_47# VGND VNB sky130_fd_pr__nfet_01v8 ad=0.0588 pd=0.7 as=0.0588 ps=0.7 w=0.42 l=0.15
X33 VPWR a_110_47# X VPB sky130_fd_pr__pfet_01v8_hvt ad=0.14 pd=1.28 as=0.14 ps=1.28 w=1 l=0.15
X34 X a_110_47# VPWR VPB sky130_fd_pr__pfet_01v8_hvt ad=0.14 pd=1.28 as=0.14 ps=1.28 w=1 l=0.15
X35 X a_110_47# VGND VNB sky130_fd_pr__nfet_01v8 ad=0.0588 pd=0.7 as=0.0588 ps=0.7 w=0.42 l=0.15
X36 X a_110_47# VGND VNB sky130_fd_pr__nfet_01v8 ad=0.0588 pd=0.7 as=0.0588 ps=0.7 w=0.42 l=0.15
X37 X a_110_47# VGND VNB sky130_fd_pr__nfet_01v8 ad=0.0588 pd=0.7 as=0.0588 ps=0.7 w=0.42 l=0.15
X38 X a_110_47# VGND VNB sky130_fd_pr__nfet_01v8 ad=0.0588 pd=0.7 as=0.0588 ps=0.7 w=0.42 l=0.15
X39 X a_110_47# VGND VNB sky130_fd_pr__nfet_01v8 ad=0.0588 pd=0.7 as=0.05775 ps=0.695 w=0.42 l=0.15
C0 VPB a_110_47# 0.527557f
C1 VPWR a_110_47# 0.669976f
C2 X a_110_47# 1.62234f
C3 A a_110_47# 0.306578f
C4 VGND a_110_47# 0.512392f
C5 VPWR VPB 0.183858f
C6 X VPB 0.03148f
C7 VPB A 0.133397f
C8 VGND VPB 0.011388f
C9 X VPWR 1.36494f
C10 VPWR A 0.111641f
C11 VGND VPWR 0.187357f
C12 X A 0.002918f
C13 X VGND 0.976879f
C14 VGND A 0.115353f
C15 VGND VNB 1.01442f
C16 X VNB 0.110579f
C17 VPWR VNB 0.834786f
C18 A VNB 0.494734f
C19 VPB VNB 1.84511f
C20 a_110_47# VNB 1.73295f
.ends

.subckt sky130_fd_sc_hd__dfrtp_1 VGND VPWR VPB VNB CLK D RESET_B Q a_1462_47# a_543_47#
+ a_651_413# a_193_47# a_805_47# a_448_47# a_639_47# a_1283_21# a_761_289# a_1108_47#
+ a_1217_47# a_1270_413# a_27_47#
X0 a_1217_47# a_27_47# a_1108_47# VNB sky130_fd_pr__nfet_01v8 ad=0.0669 pd=0.75 as=0.0711 ps=0.755 w=0.36 l=0.15
X1 a_805_47# a_761_289# a_639_47# VNB sky130_fd_pr__nfet_01v8 ad=0.0441 pd=0.63 as=0.1401 ps=1.1 w=0.42 l=0.15
X2 a_1108_47# a_193_47# a_761_289# VNB sky130_fd_pr__nfet_01v8 ad=0.0711 pd=0.755 as=0.0999 ps=0.985 w=0.36 l=0.15
X3 a_1283_21# a_1108_47# a_1462_47# VNB sky130_fd_pr__nfet_01v8 ad=0.1092 pd=1.36 as=0.06405 ps=0.725 w=0.42 l=0.15
X4 a_651_413# a_27_47# a_543_47# VPB sky130_fd_pr__pfet_01v8_hvt ad=0.1155 pd=0.97 as=0.07245 ps=0.765 w=0.42 l=0.15
X5 VGND RESET_B a_805_47# VNB sky130_fd_pr__nfet_01v8 ad=0.1346 pd=1.15 as=0.0441 ps=0.63 w=0.42 l=0.15
X6 Q a_1283_21# VPWR VPB sky130_fd_pr__pfet_01v8_hvt ad=0.26 pd=2.52 as=0.3012 ps=2.66 w=1 l=0.15
X7 VPWR CLK a_27_47# VPB sky130_fd_pr__pfet_01v8_hvt ad=0.0864 pd=0.91 as=0.1664 ps=1.8 w=0.64 l=0.15
X8 a_448_47# D VPWR VPB sky130_fd_pr__pfet_01v8_hvt ad=0.0651 pd=0.73 as=0.1092 ps=1.36 w=0.42 l=0.15
X9 a_761_289# a_543_47# VGND VNB sky130_fd_pr__nfet_01v8 ad=0.0999 pd=0.985 as=0.1346 ps=1.15 w=0.64 l=0.15
X10 a_193_47# a_27_47# VGND VNB sky130_fd_pr__nfet_01v8 ad=0.1092 pd=1.36 as=0.0567 ps=0.69 w=0.42 l=0.15
X11 a_1108_47# a_27_47# a_761_289# VPB sky130_fd_pr__pfet_01v8_hvt ad=0.0588 pd=0.7 as=0.12915 ps=1.185 w=0.42 l=0.15
X12 a_543_47# a_27_47# a_448_47# VNB sky130_fd_pr__nfet_01v8 ad=0.0594 pd=0.69 as=0.066 ps=0.745 w=0.36 l=0.15
X13 a_1462_47# RESET_B VGND VNB sky130_fd_pr__nfet_01v8 ad=0.06405 pd=0.725 as=0.12495 ps=1.015 w=0.42 l=0.15
X14 a_543_47# a_193_47# a_448_47# VPB sky130_fd_pr__pfet_01v8_hvt ad=0.07245 pd=0.765 as=0.0651 ps=0.73 w=0.42 l=0.15
X15 a_448_47# D VGND VNB sky130_fd_pr__nfet_01v8 ad=0.066 pd=0.745 as=0.2205 ps=1.89 w=0.42 l=0.15
X16 VPWR a_1283_21# a_1270_413# VPB sky130_fd_pr__pfet_01v8_hvt ad=0.0819 pd=0.81 as=0.0567 ps=0.69 w=0.42 l=0.15
X17 VPWR a_1108_47# a_1283_21# VPB sky130_fd_pr__pfet_01v8_hvt ad=0.1134 pd=1.38 as=0.0567 ps=0.69 w=0.42 l=0.15
X18 a_1270_413# a_193_47# a_1108_47# VPB sky130_fd_pr__pfet_01v8_hvt ad=0.0567 pd=0.69 as=0.0588 ps=0.7 w=0.42 l=0.15
X19 a_193_47# a_27_47# VPWR VPB sky130_fd_pr__pfet_01v8_hvt ad=0.1664 pd=1.8 as=0.0864 ps=0.91 w=0.64 l=0.15
X20 a_1283_21# RESET_B VPWR VPB sky130_fd_pr__pfet_01v8_hvt ad=0.0567 pd=0.69 as=0.0819 ps=0.81 w=0.42 l=0.15
X21 VPWR a_761_289# a_651_413# VPB sky130_fd_pr__pfet_01v8_hvt ad=0.07035 pd=0.755 as=0.1155 ps=0.97 w=0.42 l=0.15
X22 Q a_1283_21# VGND VNB sky130_fd_pr__nfet_01v8 ad=0.169 pd=1.82 as=0.2087 ps=2.02 w=0.65 l=0.15
X23 a_639_47# a_193_47# a_543_47# VNB sky130_fd_pr__nfet_01v8 ad=0.1401 pd=1.1 as=0.0594 ps=0.69 w=0.36 l=0.15
X24 VGND a_1283_21# a_1217_47# VNB sky130_fd_pr__nfet_01v8 ad=0.12495 pd=1.015 as=0.0669 ps=0.75 w=0.42 l=0.15
X25 a_651_413# RESET_B VPWR VPB sky130_fd_pr__pfet_01v8_hvt ad=0.1092 pd=1.36 as=0.07035 ps=0.755 w=0.42 l=0.15
X26 VGND CLK a_27_47# VNB sky130_fd_pr__nfet_01v8 ad=0.0567 pd=0.69 as=0.1092 ps=1.36 w=0.42 l=0.15
X27 a_761_289# a_543_47# VPWR VPB sky130_fd_pr__pfet_01v8_hvt ad=0.12915 pd=1.185 as=0.2184 ps=2.2 w=0.84 l=0.15
C0 a_805_47# RESET_B 0.003155f
C1 a_651_413# a_543_47# 0.057222f
C2 CLK VPWR 0.017406f
C3 VPWR Q 0.099692f
C4 VPB CLK 0.069345f
C5 VPB Q 0.011004f
C6 CLK a_27_47# 0.233602f
C7 a_651_413# RESET_B 0.012196f
C8 a_193_47# CLK 7.94e-19
C9 Q a_27_47# 2.63e-20
C10 a_1462_47# VGND 0.002215f
C11 a_193_47# Q 1.81e-19
C12 VPWR a_761_289# 0.10497f
C13 VPB a_761_289# 0.099418f
C14 a_1462_47# a_1283_21# 0.007399f
C15 a_761_289# a_27_47# 0.07009f
C16 a_193_47# a_761_289# 0.186387f
C17 VPWR VGND 0.050202f
C18 VPB VGND 0.009994f
C19 a_1283_21# VPWR 0.208909f
C20 VGND a_27_47# 0.253961f
C21 VGND D 0.051614f
C22 a_193_47# VGND 0.063057f
C23 a_1108_47# VPWR 0.17338f
C24 VPB a_1283_21# 0.136539f
C25 VPWR a_1270_413# 7.19e-19
C26 VPWR a_543_47# 0.100285f
C27 a_448_47# VPWR 0.068142f
C28 a_1283_21# a_27_47# 0.043567f
C29 a_1108_47# VPB 0.113409f
C30 a_193_47# a_1283_21# 0.042415f
C31 a_1462_47# RESET_B 0.002879f
C32 a_1108_47# a_27_47# 0.102355f
C33 VPB a_543_47# 0.095793f
C34 a_448_47# VPB 0.014137f
C35 a_1108_47# a_193_47# 0.125324f
C36 a_193_47# a_1270_413# 1.46e-19
C37 a_543_47# a_27_47# 0.115353f
C38 a_543_47# D 7.35e-20
C39 a_448_47# a_27_47# 0.093133f
C40 a_448_47# D 0.155634f
C41 a_193_47# a_543_47# 0.229804f
C42 a_1217_47# a_27_47# 2.56e-19
C43 a_448_47# a_193_47# 0.064178f
C44 a_1217_47# a_193_47# 2.36e-20
C45 a_639_47# a_27_47# 0.001881f
C46 VPWR RESET_B 0.065186f
C47 a_639_47# a_193_47# 2.28e-19
C48 VPB RESET_B 0.138482f
C49 a_27_47# RESET_B 0.296336f
C50 RESET_B D 4.72e-19
C51 CLK VGND 0.017208f
C52 a_193_47# RESET_B 0.026903f
C53 VGND Q 0.061585f
C54 a_651_413# VPWR 0.12856f
C55 a_1283_21# Q 0.059778f
C56 a_761_289# VGND 0.073384f
C57 a_651_413# VPB 0.013543f
C58 a_1108_47# Q 9.8e-19
C59 a_651_413# a_27_47# 9.73e-19
C60 a_651_413# a_193_47# 0.034619f
C61 a_1108_47# a_761_289# 0.051162f
C62 a_761_289# a_1270_413# 2.6e-19
C63 a_761_289# a_543_47# 0.209641f
C64 a_1217_47# a_761_289# 4.2e-19
C65 CLK RESET_B 1.09e-19
C66 a_1283_21# VGND 0.239533f
C67 Q RESET_B 9.12e-19
C68 a_639_47# a_761_289# 3.16e-19
C69 a_1108_47# VGND 0.148001f
C70 VGND a_543_47# 0.122935f
C71 a_448_47# VGND 0.0661f
C72 a_1217_47# VGND 9.68e-19
C73 a_1108_47# a_1283_21# 0.233657f
C74 a_761_289# RESET_B 0.166114f
C75 a_639_47# VGND 0.008634f
C76 a_805_47# a_761_289# 3.69e-19
C77 a_1108_47# a_1270_413# 0.006453f
C78 a_1108_47# a_543_47# 7.99e-20
C79 a_1217_47# a_1108_47# 0.007416f
C80 a_448_47# a_543_47# 0.049827f
C81 VGND RESET_B 0.287765f
C82 a_805_47# VGND 0.00579f
C83 a_639_47# a_543_47# 0.013793f
C84 VPB VPWR 0.21644f
C85 a_639_47# a_448_47# 4.61e-19
C86 a_1283_21# RESET_B 0.278137f
C87 a_651_413# a_761_289# 0.097745f
C88 VPWR D 0.081188f
C89 VPWR a_27_47# 0.152296f
C90 a_193_47# VPWR 0.395821f
C91 a_1108_47# RESET_B 0.236601f
C92 a_1270_413# RESET_B 2.06e-19
C93 VPB a_27_47# 0.261876f
C94 VPB D 0.137565f
C95 a_543_47# RESET_B 0.153272f
C96 a_448_47# RESET_B 2.45e-19
C97 VPB a_193_47# 0.17092f
C98 a_805_47# a_543_47# 0.001705f
C99 a_27_47# D 0.132849f
C100 a_1217_47# RESET_B 6.03e-19
C101 a_193_47# a_27_47# 0.906454f
C102 a_193_47# D 0.217945f
C103 a_639_47# RESET_B 9.54e-19
C104 Q VNB 0.089869f
C105 VGND VNB 1.02171f
C106 VPWR VNB 0.830843f
C107 RESET_B VNB 0.263863f
C108 D VNB 0.159894f
C109 CLK VNB 0.195254f
C110 VPB VNB 1.84511f
C111 a_651_413# VNB 0.004694f
C112 a_448_47# VNB 0.013901f
C113 a_1108_47# VNB 0.138544f
C114 a_1283_21# VNB 0.29898f
C115 a_543_47# VNB 0.157869f
C116 a_761_289# VNB 0.120848f
C117 a_193_47# VNB 0.273565f
C118 a_27_47# VNB 0.495775f
.ends

.subckt sky130_fd_sc_hd__clkbuf_1 VGND VPWR X A VPB VNB a_75_212#
X0 VPWR a_75_212# X VPB sky130_fd_pr__pfet_01v8_hvt ad=0.11455 pd=1.08 as=0.2054 ps=2.1 w=0.79 l=0.15
X1 a_75_212# A VGND VNB sky130_fd_pr__nfet_01v8 ad=0.1352 pd=1.56 as=0.0754 ps=0.81 w=0.52 l=0.15
X2 a_75_212# A VPWR VPB sky130_fd_pr__pfet_01v8_hvt ad=0.2054 pd=2.1 as=0.11455 ps=1.08 w=0.79 l=0.15
X3 VGND a_75_212# X VNB sky130_fd_pr__nfet_01v8 ad=0.0754 pd=0.81 as=0.1352 ps=1.56 w=0.52 l=0.15
C0 X VGND 0.054484f
C1 a_75_212# VGND 0.104971f
C2 VGND VPB 0.005071f
C3 X VPWR 0.089604f
C4 a_75_212# VPWR 0.134042f
C5 VPWR VPB 0.035518f
C6 X A 8.48e-19
C7 a_75_212# A 0.177899f
C8 A VPB 0.052491f
C9 VPWR VGND 0.028869f
C10 VGND A 0.018424f
C11 VPWR A 0.021742f
C12 a_75_212# X 0.106512f
C13 X VPB 0.012788f
C14 a_75_212# VPB 0.057101f
C15 VGND VNB 0.20733f
C16 VPWR VNB 0.175531f
C17 X VNB 0.094159f
C18 A VNB 0.164205f
C19 VPB VNB 0.338976f
C20 a_75_212# VNB 0.210264f
.ends

.subckt sky130_fd_sc_hd__and2b_1 X A_N B VGND VPWR VPB VNB a_27_413# a_297_47# a_207_413#
X0 VPWR B a_207_413# VPB sky130_fd_pr__pfet_01v8_hvt ad=0.2279 pd=1.74 as=0.0609 ps=0.71 w=0.42 l=0.15
X1 X a_207_413# VPWR VPB sky130_fd_pr__pfet_01v8_hvt ad=0.26 pd=2.52 as=0.2279 ps=1.74 w=1 l=0.15
X2 a_297_47# a_27_413# a_207_413# VNB sky130_fd_pr__nfet_01v8 ad=0.0504 pd=0.66 as=0.1092 ps=1.36 w=0.42 l=0.15
X3 X a_207_413# VGND VNB sky130_fd_pr__nfet_01v8 ad=0.169 pd=1.82 as=0.1013 ps=0.99 w=0.65 l=0.15
X4 a_207_413# a_27_413# VPWR VPB sky130_fd_pr__pfet_01v8_hvt ad=0.0609 pd=0.71 as=0.0714 ps=0.76 w=0.42 l=0.15
X5 VPWR A_N a_27_413# VPB sky130_fd_pr__pfet_01v8_hvt ad=0.0714 pd=0.76 as=0.1092 ps=1.36 w=0.42 l=0.15
X6 VGND B a_297_47# VNB sky130_fd_pr__nfet_01v8 ad=0.1013 pd=0.99 as=0.0504 ps=0.66 w=0.42 l=0.15
X7 a_27_413# A_N VGND VNB sky130_fd_pr__nfet_01v8 ad=0.1092 pd=1.36 as=0.1092 ps=1.36 w=0.42 l=0.15
C0 VGND X 0.065151f
C1 a_207_413# VPB 0.047771f
C2 VPWR A_N 0.018219f
C3 VPB B 0.111061f
C4 a_27_413# a_207_413# 0.185422f
C5 a_27_413# B 0.092611f
C6 a_207_413# a_297_47# 0.004764f
C7 VPWR X 0.055194f
C8 VPB A_N 0.080056f
C9 a_27_413# A_N 0.198147f
C10 X VPB 0.012221f
C11 a_207_413# B 0.181991f
C12 X a_297_47# 8.17e-20
C13 VGND VPWR 0.056424f
C14 a_207_413# A_N 8.2e-19
C15 VGND VPB 0.007626f
C16 VGND a_27_413# 0.086256f
C17 X a_207_413# 0.071579f
C18 VGND a_297_47# 0.005035f
C19 X B 0.030307f
C20 VPWR VPB 0.063352f
C21 VPWR a_27_413# 0.107953f
C22 VPWR a_297_47# 6.35e-19
C23 VGND a_207_413# 0.114823f
C24 VGND B 0.01869f
C25 a_27_413# VPB 0.083441f
C26 VPWR a_207_413# 0.111277f
C27 VGND A_N 0.047311f
C28 VPWR B 0.086692f
C29 VGND VNB 0.368472f
C30 X VNB 0.089221f
C31 VPWR VNB 0.291542f
C32 B VNB 0.132317f
C33 A_N VNB 0.201458f
C34 VPB VNB 0.604764f
C35 a_207_413# VNB 0.137402f
C36 a_27_413# VNB 0.196502f
.ends

.subckt sky130_fd_sc_hd__a31o_1 VPB VNB X A3 A2 A1 B1 VGND VPWR a_80_21# a_209_297#
+ a_209_47# a_303_47#
X0 VPWR a_80_21# X VPB sky130_fd_pr__pfet_01v8_hvt ad=0.1725 pd=1.345 as=0.265 ps=2.53 w=1 l=0.15
X1 a_209_297# A3 VPWR VPB sky130_fd_pr__pfet_01v8_hvt ad=0.16 pd=1.32 as=0.1725 ps=1.345 w=1 l=0.15
X2 a_303_47# A2 a_209_47# VNB sky130_fd_pr__nfet_01v8 ad=0.10725 pd=0.98 as=0.104 ps=0.97 w=0.65 l=0.15
X3 a_209_47# A3 VGND VNB sky130_fd_pr__nfet_01v8 ad=0.104 pd=0.97 as=0.112125 ps=0.995 w=0.65 l=0.15
X4 VGND a_80_21# X VNB sky130_fd_pr__nfet_01v8 ad=0.112125 pd=0.995 as=0.17225 ps=1.83 w=0.65 l=0.15
X5 VGND B1 a_80_21# VNB sky130_fd_pr__nfet_01v8 ad=0.208 pd=1.94 as=0.10725 ps=0.98 w=0.65 l=0.15
X6 a_80_21# A1 a_303_47# VNB sky130_fd_pr__nfet_01v8 ad=0.10725 pd=0.98 as=0.10725 ps=0.98 w=0.65 l=0.15
X7 VPWR A2 a_209_297# VPB sky130_fd_pr__pfet_01v8_hvt ad=0.165 pd=1.33 as=0.16 ps=1.32 w=1 l=0.15
X8 a_80_21# B1 a_209_297# VPB sky130_fd_pr__pfet_01v8_hvt ad=0.32 pd=2.64 as=0.165 ps=1.33 w=1 l=0.15
X9 a_209_297# A1 VPWR VPB sky130_fd_pr__pfet_01v8_hvt ad=0.165 pd=1.33 as=0.165 ps=1.33 w=1 l=0.15
C0 B1 VGND 0.017205f
C1 a_209_297# A2 0.036649f
C2 a_209_297# a_209_47# 6.96e-20
C3 a_209_297# a_80_21# 0.062574f
C4 VPB a_209_297# 0.002836f
C5 a_303_47# a_209_297# 1.26e-19
C6 A3 VGND 0.016898f
C7 A1 X 1.56e-19
C8 VPWR A1 0.018013f
C9 B1 a_80_21# 0.110759f
C10 VPB B1 0.034195f
C11 VGND X 0.057244f
C12 VPWR VGND 0.06622f
C13 A2 A3 0.108535f
C14 A3 a_209_47# 3.56e-19
C15 a_80_21# A3 0.116583f
C16 VPB A3 0.02968f
C17 A2 X 3.42e-19
C18 a_209_47# X 9.76e-19
C19 A2 VPWR 0.022678f
C20 VPWR a_209_47# 0.001019f
C21 a_80_21# X 0.076532f
C22 VPB X 0.010822f
C23 a_80_21# VPWR 0.09916f
C24 a_209_297# B1 0.006215f
C25 VPB VPWR 0.071542f
C26 a_303_47# X 6.01e-19
C27 a_303_47# VPWR 0.001051f
C28 VGND A1 0.013522f
C29 a_209_297# A3 0.02681f
C30 A2 A1 0.104261f
C31 a_80_21# A1 0.036671f
C32 a_209_297# VPWR 0.204727f
C33 VPB A1 0.028686f
C34 A2 VGND 0.014804f
C35 VGND a_209_47# 0.006958f
C36 a_80_21# VGND 0.216165f
C37 VPB VGND 0.007686f
C38 a_303_47# VGND 0.006612f
C39 B1 VPWR 0.01773f
C40 A2 a_80_21# 0.035741f
C41 A3 X 0.00625f
C42 a_209_297# A1 0.037771f
C43 a_80_21# a_209_47# 0.010132f
C44 VPB A2 0.028537f
C45 VPWR A3 0.040256f
C46 a_303_47# A2 3.38e-19
C47 VPB a_80_21# 0.050979f
C48 a_303_47# a_80_21# 0.011458f
C49 a_209_297# VGND 0.004304f
C50 VPWR X 0.117035f
C51 B1 A1 0.101116f
C52 VGND VNB 0.410332f
C53 VPWR VNB 0.331823f
C54 X VNB 0.08952f
C55 B1 VNB 0.11534f
C56 A1 VNB 0.089669f
C57 A2 VNB 0.089585f
C58 A3 VNB 0.089866f
C59 VPB VNB 0.69336f
C60 a_209_297# VNB 0.006211f
C61 a_80_21# VNB 0.211154f
.ends

.subckt sky130_fd_sc_hd__decap_6 VPWR VGND VPB VNB
X0 VPWR VGND VPWR VPB sky130_fd_pr__pfet_01v8_hvt ad=0.2262 pd=2.26 as=0.4524 ps=4.52 w=0.87 l=1.97
X1 VGND VPWR VGND VNB sky130_fd_pr__nfet_01v8 ad=0.143 pd=1.62 as=0.286 ps=3.24 w=0.55 l=1.97
C0 VPB VGND 0.161065f
C1 VPB VPWR 0.085759f
C2 VPWR VGND 0.903312f
C3 VPWR VNB 0.867393f
C4 VGND VNB 0.761362f
C5 VPB VNB 0.604764f
.ends

.subckt sky130_fd_sc_hd__dlygate4sd3_1 X A VPB VNB VGND VPWR a_49_47# a_285_47# a_391_47#
X0 VPWR A a_49_47# VPB sky130_fd_pr__pfet_01v8_hvt ad=0.0567 pd=0.69 as=0.1092 ps=1.36 w=0.42 l=0.15
X1 VGND a_285_47# a_391_47# VNB sky130_fd_pr__nfet_01v8 ad=0.097 pd=0.975 as=0.1092 ps=1.36 w=0.42 l=0.5
X2 X a_391_47# VPWR VPB sky130_fd_pr__pfet_01v8_hvt ad=0.26 pd=2.52 as=0.14075 ps=1.325 w=1 l=0.15
X3 VGND A a_49_47# VNB sky130_fd_pr__nfet_01v8 ad=0.0567 pd=0.69 as=0.1092 ps=1.36 w=0.42 l=0.15
X4 VPWR a_285_47# a_391_47# VPB sky130_fd_pr__pfet_01v8_hvt ad=0.14075 pd=1.325 as=0.1092 ps=1.36 w=0.42 l=0.5
X5 a_285_47# a_49_47# VGND VNB sky130_fd_pr__nfet_01v8 ad=0.1092 pd=1.36 as=0.0567 ps=0.69 w=0.42 l=0.5
X6 a_285_47# a_49_47# VPWR VPB sky130_fd_pr__pfet_01v8_hvt ad=0.1092 pd=1.36 as=0.0567 ps=0.69 w=0.42 l=0.5
X7 X a_391_47# VGND VNB sky130_fd_pr__nfet_01v8 ad=0.169 pd=1.82 as=0.097 ps=0.975 w=0.65 l=0.15
C0 a_285_47# VPB 0.156427f
C1 a_285_47# X 0.007197f
C2 a_285_47# VPWR 0.119832f
C3 a_49_47# a_391_47# 0.001885f
C4 a_285_47# A 0.001072f
C5 VGND a_285_47# 0.120945f
C6 VPB a_391_47# 0.044127f
C7 X a_391_47# 0.128943f
C8 VPWR a_391_47# 0.134775f
C9 VGND a_391_47# 0.130239f
C10 VPB a_49_47# 0.125413f
C11 VPWR a_49_47# 0.144268f
C12 VPB X 0.015496f
C13 a_49_47# A 0.279977f
C14 VGND a_49_47# 0.143546f
C15 VPWR VPB 0.0787f
C16 VPB A 0.082837f
C17 VGND VPB 0.007167f
C18 VPWR X 0.080229f
C19 a_285_47# a_391_47# 0.419086f
C20 VGND X 0.07961f
C21 VPWR A 0.020643f
C22 VGND VPWR 0.071507f
C23 VGND A 0.021393f
C24 a_285_47# a_49_47# 0.22264f
C25 VGND VNB 0.43965f
C26 X VNB 0.095447f
C27 VPWR VNB 0.367348f
C28 A VNB 0.178652f
C29 VPB VNB 0.781956f
C30 a_391_47# VNB 0.127705f
C31 a_285_47# VNB 0.29867f
C32 a_49_47# VNB 0.306903f
.ends

.subckt sky130_fd_sc_hd__a41o_1 VGND VPWR A3 A4 A2 X B1 A1 VPB VNB a_561_47# a_297_297#
+ a_465_47# a_381_47# a_79_21#
X0 a_465_47# A2 a_381_47# VNB sky130_fd_pr__nfet_01v8 ad=0.10725 pd=0.98 as=0.08775 ps=0.92 w=0.65 l=0.15
X1 VGND A4 a_561_47# VNB sky130_fd_pr__nfet_01v8 ad=0.169 pd=1.82 as=0.10725 ps=0.98 w=0.65 l=0.15
X2 VPWR A3 a_297_297# VPB sky130_fd_pr__pfet_01v8_hvt ad=0.165 pd=1.33 as=0.165 ps=1.33 w=1 l=0.15
X3 a_297_297# A2 VPWR VPB sky130_fd_pr__pfet_01v8_hvt ad=0.165 pd=1.33 as=0.135 ps=1.27 w=1 l=0.15
X4 a_297_297# A4 VPWR VPB sky130_fd_pr__pfet_01v8_hvt ad=0.26 pd=2.52 as=0.165 ps=1.33 w=1 l=0.15
X5 VPWR A1 a_297_297# VPB sky130_fd_pr__pfet_01v8_hvt ad=0.135 pd=1.27 as=0.135 ps=1.27 w=1 l=0.15
X6 a_381_47# A1 a_79_21# VNB sky130_fd_pr__nfet_01v8 ad=0.08775 pd=0.92 as=0.183625 ps=1.215 w=0.65 l=0.15
X7 a_297_297# B1 a_79_21# VPB sky130_fd_pr__pfet_01v8_hvt ad=0.135 pd=1.27 as=0.26 ps=2.52 w=1 l=0.15
X8 VPWR a_79_21# X VPB sky130_fd_pr__pfet_01v8_hvt ad=0.26 pd=2.52 as=0.26 ps=2.52 w=1 l=0.15
X9 a_79_21# B1 VGND VNB sky130_fd_pr__nfet_01v8 ad=0.183625 pd=1.215 as=0.160875 ps=1.145 w=0.65 l=0.15
X10 VGND a_79_21# X VNB sky130_fd_pr__nfet_01v8 ad=0.160875 pd=1.145 as=0.169 ps=1.82 w=0.65 l=0.15
X11 a_561_47# A3 a_465_47# VNB sky130_fd_pr__nfet_01v8 ad=0.10725 pd=0.98 as=0.10725 ps=0.98 w=0.65 l=0.15
C0 a_561_47# a_297_297# 3.62e-19
C1 X VPWR 0.063082f
C2 a_79_21# X 0.135998f
C3 VGND X 0.064052f
C4 X B1 1.21e-19
C5 a_297_297# A3 0.045547f
C6 a_297_297# A2 0.035373f
C7 a_381_47# a_297_297# 9.85e-19
C8 VPB A3 0.03038f
C9 a_297_297# VPWR 0.253629f
C10 a_297_297# A1 0.044438f
C11 A4 a_297_297# 0.03643f
C12 a_465_47# A3 0.001843f
C13 a_79_21# a_297_297# 0.053228f
C14 A2 VPB 0.027392f
C15 VGND a_297_297# 0.011109f
C16 a_465_47# A2 0.010642f
C17 VPB VPWR 0.081935f
C18 VPB A1 0.028093f
C19 A4 VPB 0.041818f
C20 a_79_21# VPB 0.052826f
C21 a_465_47# VPWR 8.18e-19
C22 VGND VPB 0.007308f
C23 B1 a_297_297# 0.002858f
C24 a_79_21# a_465_47# 5.59e-19
C25 VGND a_465_47# 0.004142f
C26 B1 VPB 0.043039f
C27 a_561_47# A3 0.009694f
C28 a_561_47# A2 9.72e-19
C29 X VPB 0.010526f
C30 a_561_47# VPWR 7.52e-19
C31 a_79_21# a_561_47# 2.93e-19
C32 VGND a_561_47# 0.006406f
C33 A2 A3 0.109547f
C34 a_381_47# A3 9.06e-20
C35 VPWR A3 0.024002f
C36 A3 A1 0.008128f
C37 A4 A3 0.108209f
C38 a_79_21# A3 6.62e-19
C39 a_297_297# VPB 0.006875f
C40 a_381_47# A2 0.008869f
C41 A2 VPWR 0.018762f
C42 VGND A3 0.074439f
C43 A2 A1 0.099595f
C44 a_465_47# a_297_297# 8.13e-19
C45 a_79_21# A2 0.030227f
C46 a_381_47# VPWR 8.83e-19
C47 a_381_47# A1 8.2e-20
C48 VGND A2 0.081373f
C49 VPWR A1 0.019035f
C50 A4 VPWR 0.020016f
C51 a_79_21# a_381_47# 0.002468f
C52 a_79_21# VPWR 0.124637f
C53 a_79_21# A1 0.008504f
C54 VGND a_381_47# 0.003407f
C55 a_79_21# A4 1.29e-19
C56 B1 A3 1.05e-19
C57 VGND VPWR 0.074653f
C58 VGND A1 0.016977f
C59 VGND A4 0.047952f
C60 a_79_21# VGND 0.144626f
C61 B1 A2 1.92e-19
C62 B1 VPWR 0.017677f
C63 B1 A1 0.099069f
C64 B1 A4 6.93e-21
C65 a_79_21# B1 0.149225f
C66 VGND B1 0.014254f
C67 VGND VNB 0.463871f
C68 VPWR VNB 0.364103f
C69 X VNB 0.092055f
C70 A4 VNB 0.156489f
C71 A3 VNB 0.099237f
C72 A2 VNB 0.096716f
C73 A1 VNB 0.093164f
C74 B1 VNB 0.112609f
C75 VPB VNB 0.781956f
C76 a_297_297# VNB 0.036501f
C77 a_79_21# VNB 0.141534f
.ends

.subckt sky130_fd_sc_hd__nor2_1 VPB VNB VGND VPWR A B Y a_109_297#
X0 VPWR A a_109_297# VPB sky130_fd_pr__pfet_01v8_hvt ad=0.26 pd=2.52 as=0.105 ps=1.21 w=1 l=0.15
X1 VGND A Y VNB sky130_fd_pr__nfet_01v8 ad=0.169 pd=1.82 as=0.08775 ps=0.92 w=0.65 l=0.15